*SPEF "ieee 1481-1999"
*DESIGN "gcd"
*DATE "23:57:21 Tuesday March 10, 2026"
*VENDOR "The OpenROAD Project"
*PROGRAM "OpenROAD"
*VERSION "26Q1-1747-g758a57d790"
*DESIGN_FLOW "NAME_SCOPE LOCAL" "PIN_CAP NONE"
*DIVIDER /
*DELIMITER :
*BUS_DELIMITER []
*T_UNIT 1 NS
*C_UNIT 1 PF
*R_UNIT 1 OHM
*L_UNIT 1 HENRY

*NAME_MAP
*1 _000_
*2 _001_
*3 _002_
*4 _003_
*5 _004_
*6 _005_
*7 _006_
*8 _007_
*9 _008_
*10 _009_
*11 _010_
*12 _011_
*13 _012_
*14 _013_
*15 _014_
*16 _015_
*17 _016_
*18 _017_
*19 _018_
*20 _019_
*21 _020_
*22 _021_
*23 _022_
*24 _023_
*25 _024_
*26 _025_
*27 _026_
*28 _027_
*29 _028_
*30 _029_
*31 _030_
*32 _031_
*33 _032_
*34 _033_
*35 _034_
*36 _035_
*37 _036_
*38 _037_
*39 _038_
*40 _039_
*41 req_msg[21]
*42 _041_
*43 _042_
*44 _043_
*45 _044_
*46 _045_
*47 _046_
*48 _047_
*49 _048_
*50 _049_
*51 _050_
*52 _051_
*53 _052_
*54 _053_
*55 _054_
*56 _055_
*57 _056_
*58 _057_
*59 _058_
*60 _059_
*61 _060_
*62 _061_
*63 _062_
*64 _063_
*65 _064_
*66 _065_
*67 _066_
*68 _067_
*69 _068_
*70 _069_
*71 _070_
*72 _071_
*73 _072_
*74 _073_
*75 _074_
*76 _075_
*77 _076_
*78 _077_
*79 _078_
*80 _079_
*81 _080_
*82 _081_
*83 _082_
*84 _083_
*85 _084_
*86 _085_
*87 _086_
*88 _087_
*89 _088_
*90 _089_
*91 _090_
*92 _091_
*93 _092_
*94 _093_
*95 _094_
*96 _095_
*97 _096_
*98 _097_
*99 _098_
*100 _099_
*101 _100_
*102 _101_
*103 _102_
*104 _103_
*105 _104_
*106 _105_
*107 _106_
*108 _107_
*109 _108_
*110 _109_
*111 _110_
*112 _111_
*113 _112_
*114 _113_
*115 _114_
*116 _115_
*117 _116_
*118 _117_
*119 _118_
*120 _119_
*121 _120_
*122 _121_
*123 _122_
*124 _123_
*125 _124_
*126 _125_
*127 _126_
*128 _127_
*129 _128_
*130 _129_
*131 _130_
*132 _131_
*133 _132_
*134 _133_
*135 _134_
*136 _135_
*137 _136_
*138 _137_
*139 _138_
*140 _139_
*141 _140_
*142 _141_
*143 _142_
*144 _143_
*145 _144_
*146 _145_
*147 _146_
*148 _147_
*149 _148_
*150 _149_
*151 _150_
*152 _151_
*153 _152_
*154 _153_
*155 _154_
*156 req_msg[20]
*157 _156_
*158 _157_
*159 _158_
*160 _159_
*161 _160_
*162 _161_
*163 _162_
*164 _163_
*165 _164_
*166 _165_
*167 _166_
*168 _167_
*169 _168_
*170 _169_
*171 _170_
*172 _171_
*173 _172_
*174 _173_
*175 _174_
*176 _175_
*177 _176_
*178 _177_
*179 _178_
*180 _179_
*181 _180_
*182 _181_
*183 _182_
*184 _183_
*185 _184_
*186 _185_
*187 _186_
*188 _187_
*189 _188_
*190 _189_
*191 _190_
*192 _191_
*193 _192_
*194 _193_
*195 _194_
*196 _195_
*197 _196_
*198 _197_
*199 _198_
*200 _199_
*201 _200_
*202 _201_
*203 _202_
*204 _203_
*205 _204_
*206 _205_
*207 _206_
*208 _207_
*209 _208_
*210 _209_
*211 _210_
*212 _211_
*213 _212_
*214 _213_
*215 _214_
*216 _215_
*217 _216_
*218 _217_
*219 _218_
*220 _219_
*221 _220_
*222 _221_
*223 _222_
*224 _223_
*225 _224_
*226 _225_
*227 _226_
*228 _227_
*229 _228_
*230 _229_
*231 _230_
*232 _231_
*233 _232_
*234 _233_
*235 _234_
*236 _235_
*237 _236_
*238 _237_
*239 _238_
*240 _239_
*241 _240_
*242 _241_
*243 _242_
*244 _243_
*245 _244_
*246 _245_
*247 _246_
*248 _247_
*249 _248_
*250 _249_
*251 _250_
*252 _251_
*253 _252_
*254 _253_
*255 _254_
*256 _255_
*257 _256_
*258 _257_
*259 _258_
*260 _259_
*261 _260_
*262 _261_
*263 _262_
*264 _263_
*265 _264_
*266 _265_
*267 _266_
*268 req_msg[1]
*269 _268_
*270 _269_
*271 req_msg[19]
*272 req_msg[18]
*273 req_msg[17]
*274 _273_
*275 req_msg[16]
*276 _275_
*277 _276_
*278 _277_
*279 _278_
*280 _279_
*281 _280_
*282 _281_
*283 _282_
*284 _283_
*285 _284_
*286 _285_
*287 _286_
*288 _287_
*289 _288_
*290 _289_
*291 _290_
*292 _291_
*293 _292_
*294 _293_
*295 _294_
*296 _295_
*297 _296_
*298 _297_
*299 _298_
*300 _299_
*301 req_msg[15]
*302 req_msg[14]
*303 _302_
*304 _303_
*305 _304_
*306 req_msg[13]
*307 _306_
*308 _307_
*309 _308_
*310 _309_
*311 _310_
*312 _311_
*313 _312_
*314 _313_
*315 _314_
*316 req_msg[12]
*317 _316_
*318 _317_
*319 _318_
*320 _319_
*321 _320_
*322 _321_
*323 _322_
*324 _323_
*325 _324_
*326 _325_
*327 _326_
*328 _327_
*329 _328_
*330 _329_
*331 _330_
*332 _331_
*333 _332_
*334 _333_
*335 _334_
*336 _335_
*337 _336_
*338 _337_
*339 _338_
*340 _339_
*341 req_msg[11]
*342 _341_
*343 _342_
*344 req_msg[10]
*345 _344_
*346 req_msg[0]
*347 _346_
*348 _347_
*349 _348_
*350 _349_
*351 _350_
*352 _351_
*353 _352_
*354 _353_
*355 _354_
*356 _355_
*357 _356_
*358 _357_
*359 _358_
*360 _359_
*361 _360_
*362 _361_
*363 _362_
*364 _363_
*365 _364_
*366 _365_
*367 _366_
*368 _367_
*369 _368_
*370 _369_
*371 _370_
*372 _371_
*373 _372_
*374 _373_
*375 _374_
*376 _375_
*377 _376_
*378 _377_
*379 _378_
*380 _379_
*381 _380_
*382 _381_
*383 _382_
*384 _383_
*385 _384_
*386 _385_
*387 _386_
*388 _387_
*389 _388_
*390 _389_
*391 _390_
*392 _391_
*393 _392_
*394 _393_
*395 _394_
*396 _395_
*397 _396_
*398 _397_
*399 _398_
*400 _399_
*401 _400_
*402 _401_
*403 _402_
*404 _403_
*405 _404_
*406 _405_
*407 _406_
*408 _407_
*409 _408_
*410 _409_
*411 _410_
*412 _411_
*413 _412_
*414 _413_
*415 _414_
*416 _415_
*417 _416_
*418 _417_
*419 _418_
*420 _419_
*421 _420_
*422 _421_
*423 _422_
*424 _423_
*425 _424_
*426 _425_
*427 _426_
*428 _427_
*429 _428_
*430 _429_
*431 _430_
*432 _431_
*433 _432_
*434 _433_
*435 _434_
*436 _435_
*437 _436_
*438 _437_
*439 _438_
*440 _439_
*441 _440_
*442 _441_
*443 _442_
*444 _443_
*445 _444_
*446 _445_
*447 _446_
*448 _447_
*449 _448_
*450 _449_
*451 _450_
*452 _451_
*453 _452_
*454 _453_
*455 _454_
*456 _455_
*457 _456_
*458 _457_
*459 _458_
*460 _459_
*461 _460_
*462 _461_
*463 _462_
*464 _463_
*465 _464_
*466 _465_
*467 _466_
*468 _467_
*469 _468_
*470 _469_
*471 _470_
*472 _471_
*473 _472_
*474 _473_
*475 _474_
*476 _475_
*477 _476_
*478 _477_
*479 _478_
*480 clk
*481 ctrl\.state\.out\[1\]
*482 ctrl\.state\.out\[2\]
*483 dpath\.a_lt_b\$in0\[0\]
*484 dpath\.a_lt_b\$in0\[10\]
*485 dpath\.a_lt_b\$in0\[11\]
*486 dpath\.a_lt_b\$in0\[12\]
*487 dpath\.a_lt_b\$in0\[13\]
*488 dpath\.a_lt_b\$in0\[14\]
*489 dpath\.a_lt_b\$in0\[15\]
*490 dpath\.a_lt_b\$in0\[1\]
*491 dpath\.a_lt_b\$in0\[2\]
*492 dpath\.a_lt_b\$in0\[3\]
*493 dpath\.a_lt_b\$in0\[4\]
*494 dpath\.a_lt_b\$in0\[5\]
*495 dpath\.a_lt_b\$in0\[6\]
*496 dpath\.a_lt_b\$in0\[7\]
*497 dpath\.a_lt_b\$in0\[8\]
*498 dpath\.a_lt_b\$in0\[9\]
*499 dpath\.a_lt_b\$in1\[0\]
*500 dpath\.a_lt_b\$in1\[10\]
*501 dpath\.a_lt_b\$in1\[11\]
*502 dpath\.a_lt_b\$in1\[12\]
*503 dpath\.a_lt_b\$in1\[13\]
*504 dpath\.a_lt_b\$in1\[14\]
*505 dpath\.a_lt_b\$in1\[15\]
*506 dpath\.a_lt_b\$in1\[1\]
*507 dpath\.a_lt_b\$in1\[2\]
*508 dpath\.a_lt_b\$in1\[3\]
*509 dpath\.a_lt_b\$in1\[4\]
*510 dpath\.a_lt_b\$in1\[5\]
*511 dpath\.a_lt_b\$in1\[6\]
*512 dpath\.a_lt_b\$in1\[7\]
*513 dpath\.a_lt_b\$in1\[8\]
*514 dpath\.a_lt_b\$in1\[9\]
*515 net1
*516 net2
*517 net3
*518 net4
*519 net5
*520 net6
*521 net7
*522 net8
*523 net9
*524 net10
*525 net11
*526 net12
*527 net13
*528 net14
*529 net15
*530 net16
*531 net17
*532 net18
*533 net19
*534 net20
*535 net21
*536 net22
*537 net23
*538 net24
*539 net25
*540 net26
*541 net27
*542 net28
*543 net29
*544 net30
*545 net31
*546 net32
*547 net36
*548 net33
*549 net34
*550 net37
*551 net38
*552 net39
*553 net40
*554 net41
*555 net42
*556 net43
*557 net44
*558 net45
*559 net46
*560 net47
*561 net48
*562 net49
*563 net50
*564 net51
*565 net52
*566 net35
*567 net53
*570 req_msg[22]
*571 req_msg[23]
*572 req_msg[24]
*573 req_msg[25]
*574 req_msg[26]
*575 req_msg[27]
*576 req_msg[28]
*577 req_msg[29]
*578 req_msg[2]
*579 req_msg[30]
*580 req_msg[31]
*581 req_msg[3]
*582 req_msg[4]
*583 req_msg[5]
*584 req_msg[6]
*585 req_msg[7]
*586 req_msg[8]
*587 req_msg[9]
*588 req_val
*589 reset
*590 resp_rdy
*591 req_rdy
*592 resp_msg[0]
*593 resp_msg[10]
*594 resp_msg[11]
*595 resp_msg[12]
*596 resp_msg[13]
*597 resp_msg[14]
*598 resp_msg[15]
*599 resp_msg[1]
*600 resp_msg[2]
*601 resp_msg[3]
*602 resp_msg[4]
*603 resp_msg[5]
*604 resp_msg[6]
*605 resp_msg[7]
*606 resp_msg[8]
*607 resp_msg[9]
*608 resp_val
*609 net63
*610 net62
*611 net66
*612 net67
*613 clknet_2_0__leaf_clk
*614 clknet_0_clk
*615 net60
*616 net61
*617 net64
*618 net65
*619 net68
*620 clknet_2_1__leaf_clk
*621 clknet_2_2__leaf_clk
*622 clknet_2_3__leaf_clk
*623 net69
*624 net70
*625 net71
*626 net72
*627 net73
*628 net74
*629 net75
*630 net76
*631 net77
*632 net78
*633 net79
*634 net80
*635 net81
*636 net82
*637 net83
*638 net84
*639 net85
*640 net86
*641 net87
*642 net88
*643 net89
*644 net90
*645 net91
*646 net92
*647 net93
*648 net94
*649 net95
*650 net96
*651 net97
*652 net98
*653 net99
*654 net100
*655 net120
*656 net126
*657 net127
*658 net128
*659 net129
*660 net130
*661 net131
*662 net132
*663 net133
*664 net134
*665 net135
*666 net137
*667 net138
*668 net139
*669 net140
*670 net141
*671 net142
*672 net143
*673 net144
*674 net148
*675 net149
*676 net152
*677 net153
*678 net163
*679 net172
*680 _479_
*681 _480_
*682 _481_
*683 input14
*684 _483_
*685 _484_
*686 _485_
*687 _486_
*688 _487_
*689 _488_
*690 _489_
*691 _490_
*692 _491_
*693 _492_
*694 _493_
*695 _494_
*696 _495_
*697 _496_
*698 _497_
*699 _498_
*700 _499_
*701 _500_
*702 _501_
*703 _502_
*704 _503_
*705 _504_
*706 _505_
*707 _506_
*708 _507_
*709 _508_
*710 _509_
*711 _510_
*712 _511_
*713 _512_
*714 _513_
*715 _514_
*716 _515_
*717 _516_
*718 _517_
*719 _518_
*720 _519_
*721 _520_
*722 _521_
*723 _522_
*724 _523_
*725 _524_
*726 _525_
*727 _526_
*728 _527_
*729 _528_
*730 _529_
*731 _530_
*732 _531_
*733 _532_
*734 _533_
*735 _534_
*736 _535_
*737 _536_
*738 _537_
*739 _538_
*740 _539_
*741 _540_
*742 _541_
*743 _542_
*744 _543_
*745 _544_
*746 _545_
*747 _546_
*748 _547_
*749 _548_
*750 _549_
*751 _550_
*752 _551_
*753 _552_
*754 _553_
*755 _554_
*756 _555_
*757 _556_
*758 _557_
*759 _558_
*760 _559_
*761 _560_
*762 _561_
*763 _562_
*764 _563_
*765 _564_
*766 _565_
*767 _566_
*768 _567_
*769 _568_
*770 _569_
*771 _570_
*772 _571_
*773 _572_
*774 _573_
*775 _574_
*776 _575_
*777 _576_
*778 _577_
*779 _578_
*780 _579_
*781 _580_
*782 _581_
*783 _582_
*784 _583_
*785 _584_
*786 _585_
*787 _586_
*788 _587_
*789 _588_
*790 _589_
*791 _590_
*792 _591_
*793 _592_
*794 _593_
*795 _594_
*796 _595_
*797 _596_
*798 input13
*799 _598_
*800 _599_
*801 _600_
*802 _601_
*803 _602_
*804 _603_
*805 _604_
*806 _605_
*807 _606_
*808 _607_
*809 _608_
*810 _609_
*811 _610_
*812 _611_
*813 _612_
*814 _613_
*815 _614_
*816 _615_
*817 _616_
*818 _617_
*819 _618_
*820 _619_
*821 _620_
*822 _621_
*823 _622_
*824 _623_
*825 _624_
*826 _625_
*827 _626_
*828 _627_
*829 _628_
*830 _629_
*831 _630_
*832 _631_
*833 _632_
*834 _633_
*835 _634_
*836 _635_
*837 _636_
*838 _637_
*839 _638_
*840 _639_
*841 _640_
*842 _641_
*843 _642_
*844 _643_
*845 _644_
*846 _645_
*847 _646_
*848 _647_
*849 _648_
*850 _649_
*851 _650_
*852 _651_
*853 _652_
*854 _653_
*855 _654_
*856 _655_
*857 _656_
*858 _657_
*859 _658_
*860 _659_
*861 _660_
*862 _661_
*863 _662_
*864 _663_
*865 _664_
*866 _665_
*867 _666_
*868 _667_
*869 _668_
*870 _669_
*871 _670_
*872 _671_
*873 _672_
*874 _673_
*875 _674_
*876 _675_
*877 _676_
*878 _677_
*879 _678_
*880 _679_
*881 _680_
*882 _681_
*883 _682_
*884 _683_
*885 _684_
*886 _685_
*887 _686_
*888 _687_
*889 _688_
*890 _689_
*891 _690_
*892 _691_
*893 _692_
*894 _693_
*895 _694_
*896 _695_
*897 _696_
*898 _697_
*899 _698_
*900 _699_
*901 _700_
*902 _701_
*903 _702_
*904 _703_
*905 _704_
*906 _705_
*907 _706_
*908 _707_
*909 _708_
*910 _709_
*911 _710_
*912 _711_
*913 _712_
*914 _713_
*915 _714_
*916 _715_
*917 _716_
*918 _717_
*919 _718_
*920 _719_
*921 _720_
*922 _721_
*923 _722_
*924 _723_
*925 _724_
*926 input12
*927 _726_
*928 _727_
*929 _728_
*930 input11
*931 input10
*932 input9
*933 _732_
*934 input8
*935 _734_
*936 _735_
*937 _736_
*938 _737_
*939 _738_
*940 _739_
*941 _740_
*942 _741_
*943 _742_
*944 _743_
*945 _744_
*946 _745_
*947 _746_
*948 _747_
*949 _748_
*950 _749_
*951 _750_
*952 _751_
*953 _752_
*954 _753_
*955 _754_
*956 _755_
*957 _756_
*958 _757_
*959 _758_
*960 _759_
*961 _760_
*962 _761_
*963 input7
*964 input6
*965 _764_
*966 _765_
*967 _766_
*968 input5
*969 _768_
*970 _769_
*971 _770_
*972 _771_
*973 _772_
*974 _773_
*975 _774_
*976 _775_
*977 _776_
*978 _777_
*979 _778_
*980 _779_
*981 _780_
*982 input4
*983 _782_
*984 _783_
*985 _784_
*986 _785_
*987 _786_
*988 _787_
*989 _788_
*990 _789_
*991 _790_
*992 _791_
*993 _792_
*994 _793_
*995 _794_
*996 _795_
*997 _796_
*998 _797_
*999 _798_
*1000 _799_
*1001 _800_
*1002 _801_
*1003 _802_
*1004 _803_
*1005 _804_
*1006 _805_
*1007 _806_
*1008 _807_
*1009 _808_
*1010 _809_
*1011 _810_
*1012 _811_
*1013 input3
*1014 _813_
*1015 _814_
*1016 input2
*1017 _816_
*1018 input1
*1019 _818_
*1020 _819_
*1021 _820_
*1022 _821_
*1023 _822_
*1024 _823_
*1025 _824_
*1026 _825_
*1027 _826_
*1028 _827_
*1029 _828_
*1030 _829_
*1031 _830_
*1032 _831_
*1033 _832_
*1034 _833_
*1035 _834_
*1036 _835_
*1037 _836_
*1038 _837_
*1039 _838_
*1040 _839_
*1041 _840_
*1042 _841_
*1043 _842_
*1044 _843_
*1045 _844_
*1046 _845_
*1047 _846_
*1048 _847_
*1049 _848_
*1050 _849_
*1051 _850_
*1052 _851_
*1053 _852_
*1054 _853_
*1055 _854_
*1056 _855_
*1057 _856_
*1058 _857_
*1059 _858_
*1060 _859_
*1061 _860_
*1062 _861_
*1063 _862_
*1064 _863_
*1065 _864_
*1066 _865_
*1067 _866_
*1068 _867_
*1069 _868_
*1070 _869_
*1071 _870_
*1072 _871_
*1073 _872_
*1074 _873_
*1075 _874_
*1076 _875_
*1077 _876_
*1078 _877_
*1079 _878_
*1080 _879_
*1081 _880_
*1082 _881_
*1083 _882_
*1084 _883_
*1085 _884_
*1086 _885_
*1087 _886_
*1088 _887_
*1089 _888_
*1090 _889_
*1091 _890_
*1092 _891_
*1093 _892_
*1094 _893_
*1095 _894_
*1096 _895_
*1097 _896_
*1098 _897_
*1099 _898_
*1100 _899_
*1101 _900_
*1102 _901_
*1103 _902_
*1104 _903_
*1105 _904_
*1106 _905_
*1107 _906_
*1108 _907_
*1109 _908_
*1110 _909_
*1111 _910_
*1112 _911_
*1113 _912_
*1114 _913_
*1115 _914_
*1116 _915_
*1117 _916_
*1118 _917_
*1119 _918_
*1120 _919_
*1121 _920_
*1122 _921_
*1123 _922_
*1124 _923_
*1125 _924_
*1126 _925_
*1127 _926_
*1128 _927_
*1129 _928_
*1130 _929_
*1131 _930_
*1132 _931_
*1133 _932_
*1134 _933_
*1135 _934_
*1136 _935_
*1137 _936_
*1138 _937_
*1139 _938_
*1140 _939_
*1141 ctrl\.state\.out\[0\]\$_DFF_P_
*1142 ctrl\.state\.out\[1\]\$_DFF_P_
*1143 ctrl\.state\.out\[2\]\$_DFF_P_
*1144 dpath\.a_reg\.out\[0\]\$_DFFE_PP_
*1145 dpath\.a_reg\.out\[10\]\$_DFFE_PP_
*1146 dpath\.a_reg\.out\[11\]\$_DFFE_PP_
*1147 dpath\.a_reg\.out\[12\]\$_DFFE_PP_
*1148 dpath\.a_reg\.out\[13\]\$_DFFE_PP_
*1149 dpath\.a_reg\.out\[14\]\$_DFFE_PP_
*1150 dpath\.a_reg\.out\[15\]\$_DFFE_PP_
*1151 dpath\.a_reg\.out\[1\]\$_DFFE_PP_
*1152 dpath\.a_reg\.out\[2\]\$_DFFE_PP_
*1153 dpath\.a_reg\.out\[3\]\$_DFFE_PP_
*1154 dpath\.a_reg\.out\[4\]\$_DFFE_PP_
*1155 dpath\.a_reg\.out\[5\]\$_DFFE_PP_
*1156 dpath\.a_reg\.out\[6\]\$_DFFE_PP_
*1157 dpath\.a_reg\.out\[7\]\$_DFFE_PP_
*1158 dpath\.a_reg\.out\[8\]\$_DFFE_PP_
*1159 dpath\.a_reg\.out\[9\]\$_DFFE_PP_
*1160 dpath\.b_reg\.out\[0\]\$_DFFE_PP_
*1161 dpath\.b_reg\.out\[10\]\$_DFFE_PP_
*1162 dpath\.b_reg\.out\[11\]\$_DFFE_PP_
*1163 dpath\.b_reg\.out\[12\]\$_DFFE_PP_
*1164 dpath\.b_reg\.out\[13\]\$_DFFE_PP_
*1165 dpath\.b_reg\.out\[14\]\$_DFFE_PP_
*1166 dpath\.b_reg\.out\[15\]\$_DFFE_PP_
*1167 dpath\.b_reg\.out\[1\]\$_DFFE_PP_
*1168 dpath\.b_reg\.out\[2\]\$_DFFE_PP_
*1169 dpath\.b_reg\.out\[3\]\$_DFFE_PP_
*1170 dpath\.b_reg\.out\[4\]\$_DFFE_PP_
*1171 dpath\.b_reg\.out\[5\]\$_DFFE_PP_
*1172 dpath\.b_reg\.out\[6\]\$_DFFE_PP_
*1173 dpath\.b_reg\.out\[7\]\$_DFFE_PP_
*1174 dpath\.b_reg\.out\[8\]\$_DFFE_PP_
*1175 dpath\.b_reg\.out\[9\]\$_DFFE_PP_
*1176 PHY_EDGE_ROW_0_Right_0
*1177 PHY_EDGE_ROW_1_Right_1
*1178 PHY_EDGE_ROW_2_Right_2
*1179 PHY_EDGE_ROW_3_Right_3
*1180 PHY_EDGE_ROW_4_Right_4
*1181 PHY_EDGE_ROW_5_Right_5
*1182 PHY_EDGE_ROW_6_Right_6
*1183 PHY_EDGE_ROW_7_Right_7
*1184 PHY_EDGE_ROW_8_Right_8
*1185 PHY_EDGE_ROW_9_Right_9
*1186 PHY_EDGE_ROW_10_Right_10
*1187 PHY_EDGE_ROW_11_Right_11
*1188 PHY_EDGE_ROW_12_Right_12
*1189 PHY_EDGE_ROW_13_Right_13
*1190 PHY_EDGE_ROW_14_Right_14
*1191 PHY_EDGE_ROW_15_Right_15
*1192 PHY_EDGE_ROW_16_Right_16
*1193 PHY_EDGE_ROW_17_Right_17
*1194 PHY_EDGE_ROW_18_Right_18
*1195 PHY_EDGE_ROW_19_Right_19
*1196 PHY_EDGE_ROW_20_Right_20
*1197 PHY_EDGE_ROW_21_Right_21
*1198 PHY_EDGE_ROW_22_Right_22
*1199 PHY_EDGE_ROW_0_Left_23
*1200 PHY_EDGE_ROW_1_Left_24
*1201 PHY_EDGE_ROW_2_Left_25
*1202 PHY_EDGE_ROW_3_Left_26
*1203 PHY_EDGE_ROW_4_Left_27
*1204 PHY_EDGE_ROW_5_Left_28
*1205 PHY_EDGE_ROW_6_Left_29
*1206 PHY_EDGE_ROW_7_Left_30
*1207 PHY_EDGE_ROW_8_Left_31
*1208 PHY_EDGE_ROW_9_Left_32
*1209 PHY_EDGE_ROW_10_Left_33
*1210 PHY_EDGE_ROW_11_Left_34
*1211 PHY_EDGE_ROW_12_Left_35
*1212 PHY_EDGE_ROW_13_Left_36
*1213 PHY_EDGE_ROW_14_Left_37
*1214 PHY_EDGE_ROW_15_Left_38
*1215 PHY_EDGE_ROW_16_Left_39
*1216 PHY_EDGE_ROW_17_Left_40
*1217 PHY_EDGE_ROW_18_Left_41
*1218 PHY_EDGE_ROW_19_Left_42
*1219 PHY_EDGE_ROW_20_Left_43
*1220 PHY_EDGE_ROW_21_Left_44
*1221 PHY_EDGE_ROW_22_Left_45
*1222 input15
*1223 input16
*1224 input17
*1225 input18
*1226 input19
*1227 input20
*1228 input21
*1229 input22
*1230 input23
*1231 input24
*1232 input25
*1233 input26
*1234 input27
*1235 input28
*1236 input29
*1237 input30
*1238 input31
*1239 input32
*1240 input33
*1241 input34
*1242 input35
*1243 output36
*1244 output37
*1245 output38
*1246 output39
*1247 output40
*1248 output41
*1249 output42
*1250 output43
*1251 output44
*1252 output45
*1253 output46
*1254 output47
*1255 output48
*1256 output49
*1257 output50
*1258 output51
*1259 output52
*1260 output53
*1261 place63
*1262 place62
*1263 place66
*1264 place67
*1265 clkbuf_2_0__f_clk
*1266 clkbuf_0_clk
*1267 place60
*1268 place61
*1269 place64
*1270 place65
*1271 place68
*1272 clkbuf_2_1__f_clk
*1273 clkbuf_2_2__f_clk
*1274 clkbuf_2_3__f_clk
*1275 clkload0
*1276 clkload1
*1277 clkload2
*1278 rebuffer69
*1279 rebuffer70
*1280 rebuffer71
*1281 rebuffer72
*1282 rebuffer73
*1283 rebuffer74
*1284 rebuffer75
*1285 rebuffer76
*1286 rebuffer77
*1287 rebuffer78
*1288 rebuffer79
*1289 rebuffer80
*1290 rebuffer81
*1291 rebuffer82
*1292 rebuffer83
*1293 rebuffer84
*1294 rebuffer85
*1295 rebuffer86
*1296 rebuffer87
*1297 rebuffer88
*1298 rebuffer89
*1299 rebuffer90
*1300 rebuffer91
*1301 rebuffer92
*1302 rebuffer93
*1303 rebuffer94
*1304 rebuffer95
*1305 rebuffer96
*1306 rebuffer97
*1307 rebuffer98
*1308 rebuffer99
*1309 rebuffer100
*1310 rebuffer120
*1311 rebuffer126
*1312 rebuffer127
*1313 rebuffer128
*1314 rebuffer129
*1315 rebuffer130
*1316 rebuffer131
*1317 rebuffer132
*1318 rebuffer133
*1319 rebuffer134
*1320 rebuffer135
*1321 rebuffer137
*1322 rebuffer138
*1323 rebuffer139
*1324 rebuffer140
*1325 rebuffer141
*1326 rebuffer142
*1327 rebuffer143
*1328 rebuffer144
*1329 rebuffer148
*1330 rebuffer149
*1331 rebuffer152
*1332 rebuffer153
*1333 rebuffer163
*1334 rebuffer172
*1335 FILLER_0_1
*1336 FILLER_0_17
*1337 FILLER_0_25
*1338 FILLER_0_29
*1339 FILLER_0_33
*1340 FILLER_0_39
*1341 FILLER_0_50
*1342 FILLER_0_67
*1343 FILLER_0_75
*1344 FILLER_0_96
*1345 FILLER_0_100
*1346 FILLER_0_114
*1347 FILLER_0_124
*1348 FILLER_0_166
*1349 FILLER_0_174
*1350 FILLER_1_1
*1351 FILLER_1_17
*1352 FILLER_1_25
*1353 FILLER_1_29
*1354 FILLER_1_53
*1355 FILLER_1_58
*1356 FILLER_1_108
*1357 FILLER_1_159
*1358 FILLER_1_175
*1359 FILLER_2_1
*1360 FILLER_2_33
*1361 FILLER_2_56
*1362 FILLER_2_65
*1363 FILLER_2_72
*1364 FILLER_2_79
*1365 FILLER_2_83
*1366 FILLER_2_102
*1367 FILLER_2_167
*1368 FILLER_2_175
*1369 FILLER_3_1
*1370 FILLER_3_6
*1371 FILLER_3_10
*1372 FILLER_3_12
*1373 FILLER_3_17
*1374 FILLER_3_19
*1375 FILLER_3_23
*1376 FILLER_3_29
*1377 FILLER_3_67
*1378 FILLER_3_77
*1379 FILLER_3_134
*1380 FILLER_3_150
*1381 FILLER_3_164
*1382 FILLER_3_174
*1383 FILLER_4_1
*1384 FILLER_4_17
*1385 FILLER_4_35
*1386 FILLER_4_59
*1387 FILLER_4_87
*1388 FILLER_4_149
*1389 FILLER_5_1
*1390 FILLER_5_5
*1391 FILLER_5_13
*1392 FILLER_5_19
*1393 FILLER_5_48
*1394 FILLER_5_64
*1395 FILLER_5_80
*1396 FILLER_5_88
*1397 FILLER_5_95
*1398 FILLER_5_175
*1399 FILLER_6_1
*1400 FILLER_6_9
*1401 FILLER_6_33
*1402 FILLER_6_120
*1403 FILLER_7_1
*1404 FILLER_7_6
*1405 FILLER_7_27
*1406 FILLER_7_75
*1407 FILLER_7_130
*1408 FILLER_7_171
*1409 FILLER_7_175
*1410 FILLER_8_1
*1411 FILLER_8_10
*1412 FILLER_8_21
*1413 FILLER_8_29
*1414 FILLER_8_49
*1415 FILLER_8_123
*1416 FILLER_8_174
*1417 FILLER_9_1
*1418 FILLER_9_5
*1419 FILLER_9_23
*1420 FILLER_9_41
*1421 FILLER_9_49
*1422 FILLER_9_100
*1423 FILLER_9_114
*1424 FILLER_9_149
*1425 FILLER_10_1
*1426 FILLER_10_5
*1427 FILLER_10_9
*1428 FILLER_10_17
*1429 FILLER_10_25
*1430 FILLER_10_175
*1431 FILLER_11_1
*1432 FILLER_11_9
*1433 FILLER_11_11
*1434 FILLER_11_23
*1435 FILLER_11_25
*1436 FILLER_11_43
*1437 FILLER_11_92
*1438 FILLER_12_1
*1439 FILLER_12_3
*1440 FILLER_12_75
*1441 FILLER_12_89
*1442 FILLER_12_153
*1443 FILLER_12_174
*1444 FILLER_13_22
*1445 FILLER_13_26
*1446 FILLER_13_39
*1447 FILLER_13_74
*1448 FILLER_13_78
*1449 FILLER_13_84
*1450 FILLER_13_168
*1451 FILLER_13_170
*1452 FILLER_13_174
*1453 FILLER_14_1
*1454 FILLER_14_9
*1455 FILLER_14_17
*1456 FILLER_14_37
*1457 FILLER_14_41
*1458 FILLER_14_59
*1459 FILLER_14_71
*1460 FILLER_14_77
*1461 FILLER_14_79
*1462 FILLER_14_97
*1463 FILLER_14_121
*1464 FILLER_14_170
*1465 FILLER_14_174
*1466 FILLER_15_1
*1467 FILLER_15_9
*1468 FILLER_15_22
*1469 FILLER_15_41
*1470 FILLER_15_45
*1471 FILLER_15_47
*1472 FILLER_15_63
*1473 FILLER_15_76
*1474 FILLER_15_85
*1475 FILLER_15_109
*1476 FILLER_15_118
*1477 FILLER_15_162
*1478 FILLER_15_170
*1479 FILLER_15_174
*1480 FILLER_16_1
*1481 FILLER_16_9
*1482 FILLER_16_17
*1483 FILLER_16_31
*1484 FILLER_16_75
*1485 FILLER_16_96
*1486 FILLER_16_170
*1487 FILLER_16_174
*1488 FILLER_17_1
*1489 FILLER_17_17
*1490 FILLER_17_25
*1491 FILLER_17_30
*1492 FILLER_17_94
*1493 FILLER_17_169
*1494 FILLER_17_173
*1495 FILLER_17_175
*1496 FILLER_18_1
*1497 FILLER_18_9
*1498 FILLER_18_11
*1499 FILLER_18_15
*1500 FILLER_18_26
*1501 FILLER_18_115
*1502 FILLER_18_165
*1503 FILLER_18_173
*1504 FILLER_18_175
*1505 FILLER_19_1
*1506 FILLER_19_17
*1507 FILLER_19_19
*1508 FILLER_19_37
*1509 FILLER_19_55
*1510 FILLER_19_67
*1511 FILLER_19_78
*1512 FILLER_19_102
*1513 FILLER_19_133
*1514 FILLER_19_144
*1515 FILLER_19_159
*1516 FILLER_19_175
*1517 FILLER_20_1
*1518 FILLER_20_33
*1519 FILLER_20_56
*1520 FILLER_20_148
*1521 FILLER_20_171
*1522 FILLER_20_175
*1523 FILLER_21_1
*1524 FILLER_21_17
*1525 FILLER_21_21
*1526 FILLER_21_61
*1527 FILLER_21_160
*1528 FILLER_22_1
*1529 FILLER_22_17
*1530 FILLER_22_25
*1531 FILLER_22_29
*1532 FILLER_22_42
*1533 FILLER_22_46
*1534 FILLER_22_55
*1535 FILLER_22_67
*1536 FILLER_22_100
*1537 FILLER_22_128
*1538 FILLER_22_164
*1539 FILLER_22_172

*PORTS
clk I
req_msg[0] I
req_msg[10] I
req_msg[11] I
req_msg[12] I
req_msg[13] I
req_msg[14] I
req_msg[15] I
req_msg[16] I
req_msg[17] I
req_msg[18] I
req_msg[19] I
req_msg[1] I
req_msg[20] I
req_msg[21] I
req_msg[22] I
req_msg[23] I
req_msg[24] I
req_msg[25] I
req_msg[26] I
req_msg[27] I
req_msg[28] I
req_msg[29] I
req_msg[2] I
req_msg[30] I
req_msg[31] I
req_msg[3] I
req_msg[4] I
req_msg[5] I
req_msg[6] I
req_msg[7] I
req_msg[8] I
req_msg[9] I
req_rdy O
req_val I
reset I
resp_msg[0] O
resp_msg[10] O
resp_msg[11] O
resp_msg[12] O
resp_msg[13] O
resp_msg[14] O
resp_msg[15] O
resp_msg[1] O
resp_msg[2] O
resp_msg[3] O
resp_msg[4] O
resp_msg[5] O
resp_msg[6] O
resp_msg[7] O
resp_msg[8] O
resp_msg[9] O
resp_rdy I
resp_val O

*D_NET *1 0.000315941
*CONN
*I *1141:D I *D DFF_X2
*I *936:ZN O *D NAND3_X1
*CAP
1 *1141:D 9.69801e-05
2 *936:ZN 9.69801e-05
3 *1141:D *944:A1 0
4 *1141:D *945:A 3.10376e-06
5 *1141:D *547:20 8.03846e-05
6 *1141:D *547:91 2.52965e-06
7 *1141:D *617:122 2.45719e-05
8 *1141:D *621:75 1.13911e-05
*RES
1 *936:ZN *1141:D 32.4286 
*END

*D_NET *2 0.000132876
*CONN
*I *1142:D I *D DFF_X1
*I *945:ZN O *D OAI21_X1
*CAP
1 *1142:D 3.77884e-05
2 *945:ZN 3.77884e-05
3 *1142:D *945:A 4.08532e-05
4 *1142:D *945:B2 6.38328e-07
5 *1142:D *946:A 2.37093e-06
6 *1142:D *284:6 0
7 *1142:D *617:122 1.34363e-05
*RES
1 *945:ZN *1142:D 15.3571 
*END

*D_NET *3 0.000330651
*CONN
*I *1143:D I *D DFF_X1
*I *947:ZN O *D OAI22_X1
*CAP
1 *1143:D 7.72032e-05
2 *947:ZN 7.72032e-05
3 *1143:D *944:A2 0
4 *1143:D *947:A1 4.24423e-05
5 *1143:D *283:12 0.00012041
6 *1143:D *617:122 1.33919e-05
*RES
1 *947:ZN *1143:D 31.1071 
*END

*D_NET *4 0.000475056
*CONN
*I *952:A I *D INV_X1
*I *1008:A2 I *D NOR2_X1
*I *1143:QN O *D DFF_X1
*CAP
1 *952:A 4.17876e-05
2 *1008:A2 0.000135807
3 *1143:QN 0
4 *4:4 0.000177595
5 *952:A *1005:A 3.09411e-06
6 *952:A *1057:A1 2.16072e-07
7 *952:A *290:14 2.86077e-05
8 *952:A *299:12 9.57492e-07
9 *952:A *609:8 7.72792e-06
10 *952:A *609:18 8.12817e-06
11 *1008:A2 *1009:A2 0
12 *1008:A2 *1057:A1 6.56185e-06
13 *1008:A2 *1109:A 0
14 *1008:A2 *1109:B1 2.16072e-07
15 *1008:A2 *336:8 7.09501e-06
16 *1008:A2 *379:6 0
17 *1008:A2 *379:10 5.43371e-06
18 *1008:A2 *547:95 0
19 *1008:A2 *547:109 0
20 *1008:A2 *547:113 2.39679e-06
21 *1008:A2 *609:18 4.81412e-05
22 *1008:A2 *616:18 0
23 *1008:A2 *618:12 1.29033e-06
*RES
1 *1143:QN *4:4 5 
2 *4:4 *1008:A2 19.8214 
3 *4:4 *952:A 11.3571 
*END

*D_NET *5 0.00382782
*CONN
*I *927:A2 I *D AND3_X1
*I *1049:A3 I *D NAND3_X1
*I *1057:A3 I *D NAND4_X4
*I *1035:A3 I *D NAND3_X1
*I *1042:A3 I *D NAND3_X1
*I *1021:A2 I *D NAND3_X1
*I *1006:A2 I *D NAND3_X1
*I *1028:A2 I *D NAND3_X1
*I *1130:A3 I *D NAND3_X1
*I *962:A2 I *D NAND2_X4
*I *1141:QN O *D DFF_X2
*CAP
1 *927:A2 0
2 *1049:A3 0.000104646
3 *1057:A3 2.6005e-05
4 *1035:A3 0
5 *1042:A3 0.000102884
6 *1021:A2 1.82397e-05
7 *1006:A2 6.3047e-06
8 *1028:A2 9.78248e-06
9 *1130:A3 0
10 *962:A2 0
11 *1141:QN 3.74093e-05
12 *5:123 0.000294635
13 *5:85 0.000159079
14 *5:70 0.000258462
15 *5:55 0.000275875
16 *5:40 0.000199935
17 *5:25 0.000258838
18 *5:16 0.00015423
19 *5:14 0.00022911
20 *5:6 0.000102536
21 *1006:A2 *730:A1 4.32144e-07
22 *1006:A2 *1006:A1 2.39679e-06
23 *1006:A2 *1006:A3 7.19036e-06
24 *1021:A2 *1021:A3 7.19036e-06
25 *1021:A2 *1023:A2 4.84346e-06
26 *1021:A2 *1299:A 2.16072e-07
27 *1028:A2 *1028:A1 2.39679e-06
28 *1028:A2 *1028:A3 2.39679e-06
29 *1028:A2 *1149:D 8.64288e-07
30 *1042:A3 *874:A2 2.19374e-06
31 *1042:A3 *1035:A1 3.09411e-06
32 *1042:A3 *1042:A1 9.2911e-07
33 *1042:A3 *1042:A2 9.50933e-07
34 *1042:A3 *1277:A 8.07758e-06
35 *1042:A3 *1300:A 2.24327e-06
36 *1042:A3 *1308:A 1.59582e-06
37 *1042:A3 *196:22 7.38676e-05
38 *1042:A3 *645:14 4.50902e-06
39 *1049:A3 *773:A2 4.2406e-05
40 *1049:A3 *775:A2 3.83783e-05
41 *1049:A3 *1049:A1 4.93544e-05
42 *1049:A3 *1053:A2 1.72191e-05
43 *1049:A3 *343:12 3.3351e-05
44 *1049:A3 *343:31 1.61249e-06
45 *1049:A3 *498:10 2.43223e-05
46 *1057:A3 *1049:A1 7.0096e-06
47 *1057:A3 *1054:B1 1.26998e-05
48 *1057:A3 *283:12 5.52959e-06
49 *1057:A3 *343:12 1.45805e-05
50 *5:6 *927:A1 5.33113e-06
51 *5:6 *267:12 7.72537e-06
52 *5:6 *340:27 0
53 *5:6 *481:6 2.39679e-06
54 *5:6 *547:12 0
55 *5:14 *927:A1 2.39679e-06
56 *5:14 *267:12 4.45767e-06
57 *5:14 *340:10 6.68461e-05
58 *5:14 *481:6 1.19839e-05
59 *5:14 *567:8 4.24402e-05
60 *5:25 *962:A1 2.16072e-07
61 *5:25 *1130:A2 3.30047e-06
62 *5:25 *1136:A2 1.34578e-05
63 *5:25 *333:16 1.34322e-05
64 *5:25 *340:27 1.05232e-05
65 *5:25 *340:33 0.000163634
66 *5:25 *621:61 9.71442e-06
67 *5:25 *621:67 2.00206e-05
68 *5:40 *729:A 3.22252e-05
69 *5:40 *731:A 1.46687e-06
70 *5:40 *1028:A3 2.64361e-05
71 *5:40 *1130:A2 2.75346e-06
72 *5:40 *102:14 1.89994e-06
73 *5:40 *333:27 5.57517e-05
74 *5:40 *340:33 1.42905e-05
75 *5:40 *630:10 1.0794e-06
76 *5:55 *729:A 0.000100795
77 *5:55 *731:A 7.48157e-06
78 *5:55 *1006:A3 8.70312e-06
79 *5:55 *1120:A2 8.14253e-05
80 *5:55 *1322:A 2.96955e-05
81 *5:70 *737:A1 1.09659e-05
82 *5:70 *836:A 1.18793e-05
83 *5:70 *1023:A2 7.71296e-05
84 *5:70 *1026:A 1.69426e-06
85 *5:70 *1029:A1 9.21019e-06
86 *5:70 *1030:A1 4.22839e-06
87 *5:70 *1120:A2 6.82612e-05
88 *5:70 *333:46 1.18603e-05
89 *5:70 *337:44 8.13834e-06
90 *5:70 *337:89 1.24429e-05
91 *5:70 *340:55 0
92 *5:70 *349:8 3.47305e-06
93 *5:85 *749:A1 2.94237e-06
94 *5:85 *1035:A1 1.21774e-06
95 *5:85 *1308:A 6.38328e-07
96 *5:85 *337:44 4.81912e-05
97 *5:85 *349:8 2.80671e-05
98 *5:123 *943:A1 3.25936e-05
99 *5:123 *1054:A 3.69516e-05
100 *5:123 *1055:A1 2.30357e-05
101 *5:123 *1055:A2 1.65202e-06
102 *5:123 *1133:A2 0
103 *5:123 *298:12 8.15426e-05
*RES
1 *1141:QN *5:6 8.75 
2 *5:6 *5:14 13.8571 
3 *5:14 *5:16 5 
4 *5:16 *962:A2 5 
5 *5:16 *5:25 21.8572 
6 *5:25 *1130:A3 5 
7 *5:25 *5:40 19.0357 
8 *5:40 *1028:A2 11.25 
9 *5:40 *5:55 12.7857 
10 *5:55 *1006:A2 10.75 
11 *5:55 *5:70 21.9286 
12 *5:70 *1021:A2 12.25 
13 *5:70 *5:85 14.2857 
14 *5:85 *1042:A3 18.5357 
15 *5:85 *1035:A3 5 
16 *5:14 *5:123 30.8572 
17 *5:123 *1057:A3 13.5357 
18 *5:123 *1049:A3 26.2143 
19 *5:6 *927:A2 5 
*END

*D_NET *6 0.00018243
*CONN
*I *1175:D I *D DFF_X1
*I *969:ZN O *D OAI21_X1
*CAP
1 *1175:D 7.09491e-05
2 *969:ZN 7.09491e-05
3 *1175:D *774:A 0
4 *1175:D *879:A1 1.37673e-05
5 *1175:D *289:14 4.19326e-06
6 *1175:D *379:12 2.36331e-06
7 *1175:D *616:18 2.87703e-06
8 *1175:D *679:22 1.73309e-05
*RES
1 *969:ZN *1175:D 28.0714 
*END

*D_NET *7 0.000201751
*CONN
*I *1174:D I *D DFF_X1
*I *973:ZN O *D OAI21_X1
*CAP
1 *1174:D 6.01137e-05
2 *973:ZN 6.01137e-05
3 *1174:D *901:A1 1.3743e-05
4 *1174:D *902:A2 7.92185e-07
5 *1174:D *904:A2 0
6 *1174:D *973:A 4.66198e-06
7 *1174:D *1259:A 8.29393e-06
8 *1174:D *513:12 5.40325e-05
*RES
1 *973:ZN *1174:D 26.9643 
*END

*D_NET *8 0.000236014
*CONN
*I *1173:D I *D DFF_X1
*I *977:ZN O *D OAI21_X1
*CAP
1 *1173:D 8.77035e-05
2 *977:ZN 8.77035e-05
3 *1173:D *975:B2 0
4 *1173:D *981:B2 1.90405e-05
5 *1173:D *1068:A2 2.08098e-06
6 *1173:D *1157:D 9.99007e-06
7 *1173:D *117:44 4.32144e-07
8 *1173:D *311:22 1.70588e-05
9 *1173:D *616:240 1.20047e-05
*RES
1 *977:ZN *1173:D 29.9286 
*END

*D_NET *9 0.00038957
*CONN
*I *1172:D I *D DFF_X1
*I *981:ZN O *D OAI21_X1
*CAP
1 *1172:D 9.63271e-05
2 *981:ZN 9.63271e-05
3 *1172:D *1257:A 2.69628e-05
4 *1172:D *1312:A 0
5 *1172:D *1315:A 1.18589e-06
6 *1172:D *311:22 0
7 *1172:D *315:26 6.73801e-05
8 *1172:D *620:75 6.75962e-05
9 *1172:D *632:14 3.37909e-05
*RES
1 *981:ZN *1172:D 32.6429 
*END

*D_NET *10 0.00011681
*CONN
*I *1171:D I *D DFF_X1
*I *986:ZN O *D OAI21_X1
*CAP
1 *1171:D 3.61156e-05
2 *986:ZN 3.61156e-05
3 *1171:D *722:A 1.43979e-05
4 *1171:D *986:A 2.70833e-06
5 *1171:D *1073:B2 2.16425e-05